Version 4
SHEET 1 2488 680
WIRE 1600 -496 1216 -496
WIRE 1216 -448 1216 -496
WIRE 1600 -432 1600 -496
WIRE 1600 -432 1536 -432
WIRE 1680 -432 1600 -432
WIRE 1584 -416 1536 -416
WIRE 1712 -416 1680 -416
WIRE 1584 -384 1584 -416
WIRE 1584 -384 1536 -384
WIRE 1712 -384 1712 -416
WIRE 1712 -384 1680 -384
WIRE 1488 -352 1360 -352
WIRE 1600 -336 1536 -336
WIRE 1680 -336 1600 -336
WIRE 1632 -304 1632 -352
WIRE 1632 -304 1200 -304
WIRE 1600 -272 1600 -336
WIRE 1808 -272 1600 -272
WIRE 1664 -224 1600 -224
WIRE 1360 -192 1360 -352
WIRE 1552 -192 1360 -192
WIRE 1664 -176 1664 -224
WIRE 1664 -176 1600 -176
WIRE 1200 -160 1200 -304
WIRE 1504 -160 1200 -160
WIRE 1360 -128 1360 -192
WIRE 1664 -128 1600 -128
WIRE 1504 -96 1504 -160
WIRE 1552 -96 1504 -96
WIRE 1664 -96 1664 -128
WIRE 1664 -96 1584 -96
WIRE 1200 -64 1200 -160
FLAG 1808 -272 out
FLAG 1200 16 0
FLAG 1360 -48 0
FLAG 1600 -80 0
FLAG 1216 -368 0
SYMBOL nmos4 1552 -176 R0
SYMATTR InstName M1
SYMATTR Value cmosn
SYMATTR Value2 l=250n w=360n ad=0.1728p as=0.1728p pd=1680n ps=1680n
SYMBOL voltage 1200 -80 R0
WINDOW 123 0 0 Left 0
WINDOW 39 0 0 Left 0
SYMATTR InstName VB
SYMATTR Value PULSE(0 2.5 0.01u 1p 1p 0.1u 0.2u 15)
SYMBOL voltage 1216 -464 R0
WINDOW 123 0 0 Left 0
WINDOW 39 0 0 Left 0
SYMATTR InstName V2
SYMATTR Value 2.5
SYMBOL cmosp 1488 -432 R0
SYMATTR InstName M2
SYMATTR Value2 l=250n w=1440n ad=0.1728p as=0.1728p pd=1680n ps=1680n
SYMBOL cmosp 1632 -432 R0
SYMATTR InstName M3
SYMATTR Value2 l=250n w=1440n ad=0.1728p as=0.1728p pd=1680n ps=1680n
SYMBOL nmos4 1552 -272 R0
SYMATTR InstName M4
SYMATTR Value cmosn
SYMATTR Value2 l=250n w=360n ad=0.1728p as=0.1728p pd=1680n ps=1680n
SYMBOL voltage 1360 -144 R0
WINDOW 123 0 0 Left 0
WINDOW 39 0 0 Left 0
SYMATTR InstName VA
SYMATTR Value PULSE(0 2.5 0.01u 1p 1p 0.05u 0.1u 10)
TEXT 976 176 Left 2 ;.dc VB 0 2.5 0.001
TEXT 944 248 Left 2 !.lib D:\\LTSpiceCMOSDCID\\MOSModels\\tsmc025.lib
TEXT 976 208 Left 2 !.tran 0 .22u 0 1p
